/*--------------------------------*- C++ -*----------------------------------*\
| =========                 |                                                 |
| \\      /  F ield         | foam-extend: Open Source CFD                    |
|  \\    /   O peration     | Version:     4.0                                |
|   \\  /    A nd           | Web:         http://www.foam-extend.org         |
|    \\/     M anipulation  |                                                 |
\*---------------------------------------------------------------------------*/
FoamFile
{
    version     2.0;
    format      ;
    class       dictionary;
    object      blockMeshDict;
}
// * * * * * * * * * * * * * * * * * * * * * * * * * * * * * * * * * * * * * //
// General m4 macros

// * * * * * * * * * * * * * * * * * * * * * * * * * * * * * * * * * * * * * //
// User-defined parameters

convertToMeters 0.001;

      // Length of tank (x-direction)
       // Breadth of tank (y-direction)
       // Depth of tank (z-direction)

      // Depth to the top (height) of lower chamfer
     // Height of upper chamfer

 // Angle of lower chamfer to the horizontal
 // Angle of upper chamfer to the horizontal

  // Centre of gravity in y-direction
         // Centre of gravity in z-direction

       // Number of cells in the length (1 for 2D)
      // Number of cells in the breadth
     // Number of cells in the height of the lower champfer
      // Number of cells in the height between the chamfers
    // Number of cells in the height of the upper champfer

// * * * * * * * * * * * * * * * * * * * * * * * * * * * * * * * * * * * * * //
// Derived parameters

 // Breadth to the top (height) of lower chamfer
 // Breadth of upper chamfer

// * * * * * * * * * * * * * * * * * * * * * * * * * * * * * * * * * * * * * //
// Parametric description

vertices
(
    (-5 -285 -150)  
    (-5 285 -150)
    (-5 285 150)
    (-5 -285 150)
    (5 -285 -150)
    (5 285 -150)
    (5 285 150)
    (5 -285 150)
);

blocks
(
  hex (0 4 5 1 3 7 6 2) (1 114 60) simpleGrading (1 1 1)
);
edges
(
);

patches
(
    patch walls
    (
        (3 7 6 2)
		(0 4 7 3)
        (2 6 5 1)
        (1 5 4 0)
    )

    empty front
    (
        (0 3 2 1)
    )

    empty back
    (
        (4 5 6 7)
    )
);


// ************************************************************************* //
